
Note: No compatibility mode selected!


Circuit: ** sch_path: /home/goodkook/etri050_designkit/tutorials/1-2_inverter_magic/inverter_x1_tb.sch

Warning: Model issue on line 38 :
  .model nfet nmos ( level=49 version=3.2 tnom=27 tox=1.05e-8 xj=2.7e-7 nc ...
unrecognized parameter (n) - ignored
unrecognized parameter (fc) - ignored

Warning: Model issue on line 47 :
  .model pfet pmos ( level=49 version=3.2 tnom=27 tox=1.05e-8 xj=2.2e-7 nc ...
unrecognized parameter (n) - ignored
unrecognized parameter (fc) - ignored

binary raw file "/home/goodkook/ETRI050_DesignKit/Tutorials/1-2_Inverter_Magic/simulation/inverter_x1_TB.raw"
Doing analysis at TEMP = 27.000000 and TNOM = 27.000000

No. of Data Columns : 6  

No. of Data Rows : 501

Total analysis time (seconds) = 0

Total CPU time (seconds) = 0.015 

Total DRAM available = 15956.031 MB.
DRAM currently available = 14419.074 MB.
Maximum ngspice program size =   28.129 MB.
Current ngspice program size =   11.277 MB.

Shared ngspice pages =    9.594 MB.
Text (code) pages =    8.102 MB.
Stack = 0 bytes.
Library pages =    1.891 MB.

