
Note: No compatibility mode selected!


Circuit: ** sch_path: /home/goodkook/etri050_designkit/tutorials/1-4_stdcell_dffsr/sch/dffsr_tb.sch

Warning: Model issue on line 38 :
  .model nfet nmos ( level=49 version=3.2 tnom=27 tox=1.05e-8 xj=2.7e-7 nc ...
unrecognized parameter (n) - ignored
unrecognized parameter (fc) - ignored

Warning: Model issue on line 47 :
  .model pfet pmos ( level=49 version=3.2 tnom=27 tox=1.05e-8 xj=2.2e-7 nc ...
unrecognized parameter (n) - ignored
unrecognized parameter (fc) - ignored

binary raw file "/home/goodkook/ETRI050_DesignKit/Tutorials/1-4_StdCell_DFFSR/Sch/simulation/DFFSR_TB.raw"
Doing analysis at TEMP = 27.000000 and TNOM = 27.000000

No. of Data Columns : 25  

Initial Transient Solution
--------------------------

Node                                   Voltage
----                                   -------
vdd                                          5
d                                            5
r                                            5
s                                            5
clk                                          0
q                                   0.00473789
x1.net1                            1.37105e-08
x1.c_bar                                     5
x1.net2                            2.84242e-08
x1.c                               4.73738e-09
x1.net5                            1.89494e-08
x1.net4                            3.23443e-08
x1.net3                                      5
x1.net6                              2.286e-08
x1.x4.net1                             3.74822
x1.x6.net1                         6.85525e-09
x1.net7                                      5
x1.x7.net1                             3.74802
x1.x8.net1                           1.143e-08
vclk#branch                                  0
vsin#branch                                  0
vrin#branch                                  0
vdin#branch                                  0
vdd#branch                        -4.99537e-06


No. of Data Rows : 391

Total analysis time (seconds) = 0.057463

Total CPU time (seconds) = 0.084 

Total DRAM available = 15956.031 MB.
DRAM currently available = 15005.477 MB.
Maximum ngspice program size =   28.258 MB.
Current ngspice program size =   12.379 MB.

Shared ngspice pages =   10.551 MB.
Text (code) pages =    8.102 MB.
Stack = 0 bytes.
Library pages =    2.020 MB.

