
Note: No compatibility mode selected!


Circuit: ** sch_path: /home/goodkook/etri050_designkit/tutorials/1-4_stdcell_dffsr/sch/invx1_tb.sch

Warning: Model issue on line 38 :
  .model nfet nmos ( level=49 version=3.2 tnom=27 tox=1.05e-8 xj=2.7e-7 nc ...
unrecognized parameter (n) - ignored
unrecognized parameter (fc) - ignored

Warning: Model issue on line 47 :
  .model pfet pmos ( level=49 version=3.2 tnom=27 tox=1.05e-8 xj=2.2e-7 nc ...
unrecognized parameter (n) - ignored
unrecognized parameter (fc) - ignored

binary raw file "/home/goodkook/ETRI050_DesignKit/Tutorials/1-4_StdCell_DFFSR/Sch/simulation/INVX1_TB.raw"
Doing analysis at TEMP = 27.000000 and TNOM = 27.000000

No. of Data Columns : 6  

No. of Data Rows : 501
No. of Data Columns : 6  

Initial Transient Solution
--------------------------

Node                                   Voltage
----                                   -------
vdd                                          5
a                                            0
y                                            5
vain#branch                                  0
vdd#branch                        -5.01001e-12


No. of Data Rows : 236

Total analysis time (seconds) = 0.027338

Total CPU time (seconds) = 0.039 

Total DRAM available = 15956.031 MB.
DRAM currently available = 14321.691 MB.
Maximum ngspice program size =   28.137 MB.
Current ngspice program size =   11.066 MB.

Shared ngspice pages =    9.402 MB.
Text (code) pages =    8.102 MB.
Stack = 0 bytes.
Library pages =    1.898 MB.

