
Note: No compatibility mode selected!


Circuit: ** sch_path: /home/goodkook/etri050_designkit/tutorials/1-4_stdcell_dffsr/sch/nand2x1_tb.sch

Warning: Model issue on line 38 :
  .model nfet nmos ( level=49 version=3.2 tnom=27 tox=1.05e-8 xj=2.7e-7 nc ...
unrecognized parameter (n) - ignored
unrecognized parameter (fc) - ignored

Warning: Model issue on line 47 :
  .model pfet pmos ( level=49 version=3.2 tnom=27 tox=1.05e-8 xj=2.2e-7 nc ...
unrecognized parameter (n) - ignored
unrecognized parameter (fc) - ignored

binary raw file "/home/goodkook/ETRI050_DesignKit/Tutorials/1-4_StdCell_DFFSR/Sch/simulation/NAND2X1_TB.raw"
Doing analysis at TEMP = 27.000000 and TNOM = 27.000000

No. of Data Columns : 9  

Initial Transient Solution
--------------------------

Node                                   Voltage
----                                   -------
vdd                                          5
a                                            0
y                                            5
x1.net1                             0.00683643
b                                            0
vbin#branch                                  0
vain#branch                                  0
vdd#branch                        -5.01804e-12


No. of Data Rows : 152

Total analysis time (seconds) = 0.006905

Total CPU time (seconds) = 0.013 

Total DRAM available = 15956.031 MB.
DRAM currently available = 14325.129 MB.
Maximum ngspice program size =   28.129 MB.
Current ngspice program size =   11.109 MB.

Shared ngspice pages =    9.445 MB.
Text (code) pages =    8.102 MB.
Stack = 0 bytes.
Library pages =    1.891 MB.

