
Note: No compatibility mode selected!


Circuit: ** sch_path: /home/goodkook/etri050_designkit/tutorials/1-3_inverter_netgen/buffer_tb_tran.sch

Warning: Model issue on line 38 :
  .model nfet nmos ( level=49 version=3.2 tnom=27 tox=1.05e-8 xj=2.7e-7 nc ...
unrecognized parameter (n) - ignored
unrecognized parameter (fc) - ignored

Warning: Model issue on line 47 :
  .model pfet pmos ( level=49 version=3.2 tnom=27 tox=1.05e-8 xj=2.2e-7 nc ...
unrecognized parameter (n) - ignored
unrecognized parameter (fc) - ignored

binary raw file "/home/goodkook/ETRI050_DesignKit/Tutorials/1-3_Inverter_Netgen/simulation/buffer_TB_tran.raw"
Doing analysis at TEMP = 27.000000 and TNOM = 27.000000

No. of Data Columns : 15  

Initial Transient Solution
--------------------------

Node                                   Voltage
----                                   -------
vdd                                          5
vout                                0.00735799
vdd_x1                                       5
vout_layout                         0.00735799
vin                                          0
x9.inverter_x1_3/y                           5
x9.inverter_x1_2/a                           5
x9.inverter_x1_3/a                 7.35673e-09
x10.net1                                     5
x10.net2                           7.35673e-09
x10.net3                                     5
vdd_x1#branch                     -4.99266e-06
vin#branch                                   0
vdd#branch                        -4.99266e-06


No. of Data Rows : 500047

Total analysis time (seconds) = 25.1744

Total CPU time (seconds) = 27.764 

Total DRAM available = 15956.031 MB.
DRAM currently available = 14205.320 MB.
Maximum ngspice program size =   28.133 MB.
Current ngspice program size =   10.906 MB.

Shared ngspice pages =    9.242 MB.
Text (code) pages =    8.102 MB.
Stack = 0 bytes.
Library pages =    1.895 MB.

