
Note: No compatibility mode selected!


Circuit: ** sch_path: /home/goodkook/etri050_designkit/tutorials/1-4_stdcell_dffsr/layout/dffsr74_tb.sch

Warning: Model issue on line 38 :
  .model nfet nmos ( level=49 version=3.2 tnom=27 tox=1.05e-8 xj=2.7e-7 nc ...
unrecognized parameter (n) - ignored
unrecognized parameter (fc) - ignored

Warning: Model issue on line 47 :
  .model pfet pmos ( level=49 version=3.2 tnom=27 tox=1.05e-8 xj=2.2e-7 nc ...
unrecognized parameter (n) - ignored
unrecognized parameter (fc) - ignored

binary raw file "/home/goodkook/ETRI050_DesignKit/Tutorials/1-4_StdCell_DFFSR/Layout/simulation/DFFSR74_TB.raw"
Doing analysis at TEMP = 27.000000 and TNOM = 27.000000

No. of Data Columns : 25  

Initial Transient Solution
--------------------------

Node                                   Voltage
----                                   -------
vdd                                          5
d                                            5
r                                            5
s                                            5
clk                                          0
q                                   0.00473789
x1.nand2x1_2/a                     2.84242e-08
x1.invx1_0/y                       4.73738e-09
x1.d_bar                           1.89494e-08
x1.nand2x1_0/y                     1.37105e-08
x1.c_bar                                     5
x1.nand2x1_3/a                     3.23443e-08
x1.nand2x1_1/y                       2.286e-08
x1.nand2x1_2/y                               5
x1.invx1_1/a                                 5
vclk#branch                                  0
vsin#branch                                  0
vrin#branch                                  0
vdin#branch                                  0
vdd#branch                        -4.99537e-06


No. of Data Rows : 385

Total analysis time (seconds) = 0.064027

Total CPU time (seconds) = 0.084 

Total DRAM available = 15956.031 MB.
DRAM currently available = 14468.066 MB.
Maximum ngspice program size =   28.266 MB.
Current ngspice program size =   12.195 MB.

Shared ngspice pages =   10.363 MB.
Text (code) pages =    8.102 MB.
Stack = 0 bytes.
Library pages =    2.027 MB.

