
Note: No compatibility mode selected!


Circuit: ** sch_path: /home/goodkook/etri050_designkit/devel/sch/and2x1.sch

Warning: Model issue on line 22 :
  .model nfet nmos ( level=49 version=3.1 tnom=27 tox=1.4e-8 xj=1.5e-7 nch ...
unrecognized parameter (xl) - ignored
unrecognized parameter (xw) - ignored

Warning: Model issue on line 46 :
  .model pfet pmos ( level=49 version=3.1 tnom=27 tox=1.4e-8 xj=1.5e-7 nch ...
unrecognized parameter (xl) - ignored
unrecognized parameter (xw) - ignored

binary raw file "/home/goodkook/ETRI050_DesignKit/devel/sch/simulation/AND2X1.raw"
Doing analysis at TEMP = 27.000000 and TNOM = 27.000000

Warning: Pd = 0 is less than W.
Warning: Ps = 0 is less than W.
Warning: Pd = 0 is less than W.
Warning: Ps = 0 is less than W.
Warning: Pd = 0 is less than W.
Warning: Ps = 0 is less than W.
No. of Data Columns : 10  

Initial Transient Solution
--------------------------

Node                                   Voltage
----                                   -------
net2                                 0.0122436
a                                            0
net1                                         5
vdd                                          5
b                                            0
y                                  1.36845e-08
vbin#branch                                  0
vain#branch                                  0
vdd#branch                        -3.39482e-11


No. of Data Rows : 25038

Total analysis time (seconds) = 0.301435

Total CPU time (seconds) = 0.479 

Total DRAM available = 15955.973 MB.
DRAM currently available = 14317.684 MB.
Maximum ngspice program size =   24.656 MB.
Current ngspice program size =   10.895 MB.

Shared ngspice pages =    9.223 MB.
Text (code) pages =    5.008 MB.
Stack = 0 bytes.
Library pages =    1.883 MB.

