
Note: No compatibility mode selected!


Circuit: ** sch_path: /home/goodkook/etri050_designkit/devel/sch/mux2x1.sch

Warning: Model issue on line 20 :
  .model nfet nmos ( level=49 version=3.1 tnom=27 tox=1.4e-8 xj=1.5e-7 nch ...
unrecognized parameter (xl) - ignored
unrecognized parameter (xw) - ignored

Warning: Model issue on line 44 :
  .model pfet pmos ( level=49 version=3.1 tnom=27 tox=1.4e-8 xj=1.5e-7 nch ...
unrecognized parameter (xl) - ignored
unrecognized parameter (xw) - ignored

binary raw file "/home/goodkook/ETRI050_DesignKit/devel/sch/simulation/MUX2X1.raw"
Doing analysis at TEMP = 27.000000 and TNOM = 27.000000

Warning: Pd = 0 is less than W.
Warning: Ps = 0 is less than W.
Warning: Pd = 0 is less than W.
Warning: Ps = 0 is less than W.
Warning: Pd = 0 is less than W.
Warning: Ps = 0 is less than W.
Warning: Pd = 0 is less than W.
Warning: Ps = 0 is less than W.
No. of Data Columns : 15  

Initial Transient Solution
--------------------------

Node                                   Voltage
----                                   -------
s_bar                                        5
s                                            0
vdd                                          5
net1                                   1.03791
b                                            5
y                                  4.90523e-08
a                                            0
net2                                         5
net3                               2.45261e-08
net4                               2.39919e-07
vs_in#branch                                 0
vb_in#branch                                 0
va_in#branch                                 0
vdd#branch                        -5.88531e-11


No. of Data Rows : 50032

Total analysis time (seconds) = 0.866132

Total CPU time (seconds) = 1.122 

Total DRAM available = 15955.973 MB.
DRAM currently available = 13983.684 MB.
Maximum ngspice program size =   24.656 MB.
Current ngspice program size =   10.797 MB.

Shared ngspice pages =    9.121 MB.
Text (code) pages =    5.008 MB.
Stack = 0 bytes.
Library pages =    1.883 MB.

